<component name="ProjectRunConfigurationManager">
  <configuration default="false" name="All Routes" type="JavaScriptTestRunnerJest">
    <config-file value="$PROJECT_DIR$/web/jest.routes.config.js" />
    <node-interpreter value="$USER_HOME$/.nvm/versions/node/v18.14.2/bin/node" />
    <node-options value="" />
    <jest-package value="$PROJECT_DIR$/web/node_modules/jest" />
    <working-dir value="$PROJECT_DIR$/web" />
    <jest-options value=" --runInBand --forceExit" />
    <envs />
    <scope-kind value="ALL" />
    <method v="2" />
  </configuration>
</component>